LTspice 26.0.1 for Windows
Circuit: C:\Users\Marius\OneDrive\Privat\OneDrive Scheiß\Dokumente\LTspice\Draft2.net
Start Time: Thu Apr 16 17:02:25 2026
solver = Normal
Maximum thread count: 12
tnom = 27
temp = 27
method = trap
Direct Newton iteration succeeded in finding operating point.
Total elapsed time: 4.536 seconds.

Files loaded:
C:\Users\Marius\OneDrive\Privat\OneDrive Scheiß\Dokumente\LTspice\Draft2.net
C:\Users\Marius\AppData\Local\LTspice\lib\sub\LTC2.lib

