LTspice 26.0.1 for Windows
Circuit: C:\Users\Marius\OneDrive\Privat\OneDrive Scheiß\Dokumente\LTspice\Draft1.net
Start Time: Thu Apr 23 15:36:35 2026
solver = Normal
Maximum thread count: 12
tnom = 27
temp = 27
method = trap
Early termination of direct N-R iteration.
Direct Newton iteration failed to find operating point.
Starting Gmin stepping
Gmin stepping succeeded in finding the operating point.


Simulation stopped by user.
Total elapsed time: 94.269 seconds.

Files loaded:
C:\Users\Marius\OneDrive\Privat\OneDrive Scheiß\Dokumente\LTspice\Draft1.net
C:\Users\Marius\AppData\Local\LTspice\lib\cmp\standard.dio
C:\Users\Marius\AppData\Local\LTspice\lib\cmp\standard.bjt
C:\Users\Marius\OneDrive\Privat\OneDrive Scheiß\Dokumente\LTspice\regulators.lib
C:\Users\Marius\AppData\Local\LTspice\lib\sub\LTC.lib
C:\Users\Marius\AppData\Local\LTspice\lib\sub\LTC2.lib

