LTspice 26.0.1 for Windows
Circuit: C:\Users\ppala\Desktop\Uni\9.Semester\PEP\PEP\Signalumwandlung.net
Start Time: Thu Apr 23 22:39:58 2026
solver = Normal
Maximum thread count: 8
tnom = 27
temp = 27
method = modified trap
Direct Newton iteration succeeded in finding operating point.
Total elapsed time: 3.299 seconds.

Files loaded:
C:\Users\ppala\Desktop\Uni\9.Semester\PEP\PEP\Signalumwandlung.net
C:\Users\ppala\AppData\Local\LTspice\lib\cmp\standard.dio
C:\Users\ppala\AppData\Local\LTspice\lib\sub\LTC2.lib

