LTspice 26.0.1 for Windows
Circuit: C:\Users\Marius\OneDrive\Privat\OneDrive Scheiß\Dokumente\LTspice\Spannungsversorgungasc.net
Start Time: Fri Apr 17 13:02:31 2026
solver = Normal
Maximum thread count: 12
tnom = 27
temp = 27
method = trap
Direct Newton iteration failed to find operating point.
Starting Gmin stepping
Gmin stepping succeeded in finding the operating point.

Total elapsed time: 0.294 seconds.

Files loaded:
C:\Users\Marius\OneDrive\Privat\OneDrive Scheiß\Dokumente\LTspice\Spannungsversorgungasc.net
C:\Users\Marius\AppData\Local\LTspice\lib\cmp\standard.dio
C:\Users\Marius\AppData\Local\LTspice\lib\cmp\standard.bjt
C:\Users\Marius\OneDrive\Privat\OneDrive Scheiß\Dokumente\LTspice\regulators.lib
C:\Users\Marius\AppData\Local\LTspice\lib\sub\LTC.lib

