LTspice 26.0.1 for Windows
Circuit: C:\Users\Marius\OneDrive\Privat\OneDrive Scheiß\Dokumente\LTspice\Wien_Robinson_Oszillator.net
Start Time: Fri Apr 17 14:08:01 2026
solver = Normal
Maximum thread count: 12
tnom = 27
temp = 27
method = trap
Direct Newton iteration succeeded in finding operating point.

Simulation stopped by user.
Total elapsed time: 32232.341 seconds.

Files loaded:
C:\Users\Marius\OneDrive\Privat\OneDrive Scheiß\Dokumente\LTspice\Wien_Robinson_Oszillator.net
C:\Users\Marius\AppData\Local\LTspice\lib\cmp\standard.dio
C:\Users\Marius\AppData\Local\LTspice\lib\cmp\standard.jft
C:\Users\Marius\AppData\Local\LTspice\lib\sub\LTC2.lib

